egret/models/tests/pglib_opf_case3_lmbd_fdf_0980.json
{"elements": {"bus": {"1": {"matpower_bustype": "ref", "area": 1.0, "vm": 1.099235080797996, "va": -5.237386352462748e-17, "base_kv": 240.0, "zone": 1.0, "v_min": 0.9, "v_max": 1.1, "lmp": 33.88983508286863, "qlmp": -0.000308867597624681, "pl": 107.80000000000001, "ql": 39.2, "vdf": {"1": 0.10435047554780386, "2": 0.5537237375869498, "3": 0.538210035060479}, "vdf_c": 0.5499999999999998, "phi_from": {}, "phi_to": {}, "phi_loss_from": {}, "phi_loss_to": {}, "phi_q_from": {}, "phi_q_to": {}, "phi_loss_q_from": {}, "phi_loss_q_to": {}}, "2": {"matpower_bustype": "PV", "area": 1.0, "vm": 0.9178037365982841, "va": 0.20315276686332595, "base_kv": 240.0, "zone": 1.0, "v_min": 0.9, "v_max": 1.1, "lmp": 31.332177128529782, "qlmp": -0.000283329629089108, "pl": 107.80000000000001, "ql": 39.2, "vdf": {"1": 0.46090805559895476, "2": 0.2667474031079315, "3": 0.7305941105484679}, "vdf_c": 0.46308526842120357, "phi_from": {}, "phi_to": {}, "phi_loss_from": {}, "phi_loss_to": {}, "phi_q_from": {}, "phi_q_to": {}, "phi_loss_q_from": {}, "phi_loss_q_to": {}}, "3": {"matpower_bustype": "PV", "area": 1.0, "vm": 0.900000000227995, "va": -0.26262959734808083, "base_kv": 240.0, "zone": 1.0, "v_min": 0.9, "v_max": 1.1, "lmp": 35.8656124053246, "qlmp": -0.00028200175217490676, "pl": 93.1, "ql": 49.0, "vdf": {"1": 0.4201262590394744, "2": 0.6771849193318586, "3": 0.33065672140582814}, "vdf_c": 0.44999999999999984, "phi_from": {}, "phi_to": {}, "phi_loss_from": {}, "phi_loss_to": {}, "phi_q_from": {}, "phi_q_to": {}, "phi_loss_q_from": {}, "phi_loss_q_to": {}}}, "load": {"load_1": {"in_service": true, "p_load": 107.80000000000001, "q_load": 39.2, "bus": "1"}, "load_2": {"in_service": true, "p_load": 107.80000000000001, "q_load": 39.2, "bus": "2"}, "load_3": {"in_service": true, "p_load": 93.1, "q_load": 49.0, "bus": "3"}}, "generator": {"1": {"bus": "1", "pg": 131.31743219485801, "qg": 54.69726765067637, "vg": 1.0, "mbase": 100.0, "in_service": true, "p_min": 0.0, "p_max": 2000.0, "q_min": -1000.0, "q_max": 1000.0, "generator_type": "thermal", "p_cost": {"data_type": "cost_curve", "cost_curve_type": "polynomial", "values": {"0": 0.0, "1": 5.0, "2": 0.11}}, "startup_cost": 0.0, "shutdown_cost": 0.0}, "2": {"bus": "2", "pg": 180.29272317459225, "qg": -10.575738307079163, "vg": 1.0, "mbase": 100.0, "in_service": true, "p_min": 0.0, "p_max": 2000.0, "q_min": -1000.0, "q_max": 1000.0, "generator_type": "thermal", "p_cost": {"data_type": "cost_curve", "cost_curve_type": "polynomial", "values": {"0": 0.0, "1": 1.2, "2": 0.08500000000000002}}, "startup_cost": 0.0, "shutdown_cost": 0.0}, "3": {"bus": "3", "pg": 0.0, "qg": -4.842636860230876, "vg": 1.0, "mbase": 100.0, "in_service": true, "p_min": 0.0, "p_max": 0.0, "q_min": -1000.0, "q_max": 1000.0, "generator_type": "thermal", "p_cost": {"data_type": "cost_curve", "cost_curve_type": "polynomial", "values": {"0": 0.0, "1": 0.0, "2": 0.0}}, "startup_cost": 0.0, "shutdown_cost": 0.0}}, "branch": {"1": {"from_bus": "1", "to_bus": "3", "resistance": 0.065, "reactance": 0.62, "charging_susceptance": 0.45, "branch_type": "line", "rating_long_term": 9000.0, "rating_short_term": 9000.0, "rating_emergency": 9000.0, "in_service": true, "angle_diff_min": -30.0, "angle_diff_max": 30.0, "pf": 44.38373778288665, "qf": 22.38051285951361, "pt": -49.14556828305927, "qt": -34.90846563423724, "pfl": 2.1615509021586377, "qfl": -24.832129597927683, "pf_dual": 3757.4719464922764, "qf_dual": 6.359756182730438e-09, "ptdf": {"1": 0.0, "2": 0.352002257978692, "3": 0.7617654171830306}, "pldf": {"1": 0.0, "2": 0.022941808937663344, "3": 0.0496481947493371}, "ptdf_c": -0.010190203123727731, "pldf_c": -0.011783747649313347, "qtdf": {"1": -0.38846243213173975, "2": -0.06223025023437102, "3": 0.3613857782912081}, "qldf": {"1": -0.343354374905902, "2": -0.44835706041447426, "3": -0.14592024407233128}, "qtdf_c": -2.7755575615628914e-17, "qldf_c": 5.551115123125783e-17}, "2": {"from_bus": "3", "to_bus": "2", "resistance": 0.025, "reactance": 0.75, "charging_susceptance": 0.7, "branch_type": "line", "rating_long_term": 50.0, "rating_short_term": 50.0, "rating_emergency": 50.0, "in_service": true, "angle_diff_min": -30.0, "angle_diff_max": 30.0, "pf": -49.999999999989626, "qf": -0.06313567024774525, "pt": 46.52525119736147, "qt": -18.313959121065228, "pfl": 0.6708194804207424, "qfl": -38.248130252379774, "pf_dual": -636.5685762414944, "qf_dual": 1.3576240842021132e-11, "ptdf": {"1": 0.0, "2": 0.3457905145289684, "3": -0.2671213544280701}, "pldf": {"1": 0.0, "2": -0.010518322038216205, "3": 0.008125348472864351}, "ptdf_c": -0.0006370585658797383, "pldf_c": -0.007322541466382662, "qtdf": {"1": -0.03306564448023224, "2": 0.37181875822854654, "3": -0.3544238754425196}, "qldf": {"1": -0.3674392003971131, "2": -0.4197409565113605, "3": -0.42246044846021324}, "qtdf_c": 1.214306433183765e-17, "qldf_c": 1.1102230246251565e-16, "pfl_dual": 3388.9835082868626, "qfl_dual": -0.04882812811260116}, "3": {"from_bus": "1", "to_bus": "2", "resistance": 0.042, "reactance": 0.9, "charging_susceptance": 0.3, "branch_type": "line", "rating_long_term": 9000.0, "rating_short_term": 9000.0, "rating_emergency": 9000.0, "in_service": true, "angle_diff_min": -30.0, "angle_diff_max": 30.0, "pf": -21.928024470772243, "qf": 18.20481010526883, "pt": 13.481042093852826, "qt": -30.47717586747673, "pfl": 0.24082958333825621, "qfl": -25.856244084926338, "pf_dual": 3757.471946492103, "qf_dual": 6.344517840074416e-09, "ptdf": {"1": 0.0, "2": 0.64511571874178, "3": 0.2695816196885998}, "pldf": {"1": 0.0, "2": -0.007669211420287056, "3": -0.0032048179518050766}, "ptdf_c": -0.0025987804945490356, "pldf_c": 0.0008508633455251266, "qtdf": {"1": -0.29525716806681673, "2": 0.3523597719786906, "3": -0.07261600252131462}, "qldf": {"1": -0.289206424696985, "2": -0.13190198307416515, "3": -0.43161930746745547}, "qtdf_c": 8.326672684688674e-17, "qldf_c": -5.551115123125783e-17}}}, "system": {"model_name": "pglib_opf_case3_lmbd", "mpc_version": "'2'", "baseMVA": 100.0, "reference_bus": "1", "reference_bus_angle": 0.0, "total_cost": 5532.774305720422, "ploss": 2.910155369450309, "qloss": -88.12110751663364, "mult": 0.98}, "results": {"time": 0.010525703430175781, "#_cons": 17, "#_vars": 39, "#_nz": 54, "termination": "optimal"}}